; Filename: networks/vilamoura_verao_zmc_bomba_quintinhas.inp
; WNTR: 0.4.0
; Created: 2022-01-16 12:25:43
[TITLE]

[JUNCTIONS]
;ID                      Elevation       Demand Pattern                 
 100                            24.49               0 reservatorio               ;
 1003                          17.659      0.16129032 reservatorio               ;
 1006                          19.426       0.0577957 reservatorio               ;
 1011                          17.128      0.33669355 reservatorio               ;
 1012                          16.849      0.26142473 reservatorio               ;
 1014                          18.438      0.14852151 reservatorio               ;
 1019                          15.995               0 reservatorio               ;
 102                           25.931               0 reservatorio               ;
 1020                          17.914      0.15389785 reservatorio               ;
 1024                           15.47               0 reservatorio               ;
 1025                          15.931      0.39852151 reservatorio               ;
 1028                          17.799      0.07526882 reservatorio               ;
 1030                          20.463      1.47647849 reservatorio               ;
 1033                          18.515      0.30846774 reservatorio               ;
 1037                          19.319      0.32526882 reservatorio               ;
 1038                          18.906      0.01209677 reservatorio               ;
 104                           27.986               0 reservatorio               ;
 1042                          17.893      0.06115591 reservatorio               ;
 1045                          16.805      0.36021505 reservatorio               ;
 1046                          17.839       0.0436828 reservatorio               ;
 1050                          18.084               0 reservatorio               ;
 1052                          17.604      0.36021505 reservatorio               ;
 1056                          23.523               0 reservatorio               ;
 1060                          21.691               0 reservatorio               ;
 1063                          21.438               0 reservatorio               ;
 1068                          20.066       0.3077957 reservatorio               ;
 1069                          20.502      0.13037634 reservatorio               ;
 1070                          20.988      0.16532258 reservatorio               ;
 1072                          20.755      0.29973118 reservatorio               ;
 1075                          20.795      0.29569892 reservatorio               ;
 1079                           20.22      1.18212366 reservatorio               ;
 1083                          21.337               0 reservatorio               ;
 1086                          25.297      0.84543011 reservatorio               ;
 1088                           23.88      0.02150538 reservatorio               ;
 1089                          21.747      0.20698925 reservatorio               ;
 1091                          22.809      0.32997312 reservatorio               ;
 1094                          23.019      0.22849462 reservatorio               ;
 1098                           29.65               0 reservatorio               ;
 1102_n2a_1                    29.396               0 reservatorio               ;
 1102_n2a_2                    29.396               0 reservatorio               ;
 1103                          34.032               0 reservatorio               ;
 1107                          38.817      0.08938172 reservatorio               ;
 1108                          36.634      1.55846774 reservatorio               ;
 1112                          29.208      0.92741935 reservatorio               ;
 1116                          34.439      0.15456989 reservatorio               ;
 1117                          29.396      0.15456989 reservatorio               ;
 1121                          27.844               0 reservatorio               ;
 1124                          26.246               0 reservatorio               ;
 1128                          25.447      0.07459677 reservatorio               ;
 1129                          24.741      0.38037634 reservatorio               ;
 113                           30.589               0 reservatorio               ;
 1133                          26.401      0.13508065 reservatorio               ;
 1134                          25.609      0.33266129 reservatorio               ;
 1141                          11.725               0 reservatorio               ;
 1143                          13.699      0.39112903 reservatorio               ;
 1145                          29.783               0 reservatorio               ;
 1147                          42.761               0 reservatorio               ;
 1149                          29.103      0.52956989 reservatorio               ;
 115                            38.61               0 reservatorio               ;
 1151                          42.841      3.50806452 reservatorio               ;
 1155                          33.223      0.20295699 reservatorio               ;
 1159                          33.367      0.25268817 reservatorio               ;
 1163                          38.371      0.59005376 reservatorio               ;
 1165                          40.686      0.65255376 reservatorio               ;
 1166                           36.19      1.25403226 reservatorio               ;
 1167                          32.812      0.92741935 reservatorio               ;
 1168                           34.39      0.79233871 reservatorio               ;
 1169                          34.798      0.14112903 reservatorio               ;
 117                           33.189               0 reservatorio               ;
 1172                          38.724      0.04704301 reservatorio               ;
 1175                          39.221      1.43010753 reservatorio               ;
 1178                          35.727      1.84139785 reservatorio               ;
 1182                          32.473      0.52956989 reservatorio               ;
 1185                          37.538      3.03897849 reservatorio               ;
 1188                          28.799      0.76478495 reservatorio               ;
 119                           31.469      0.02822581 reservatorio               ;
 1190                          38.363      0.71841398 reservatorio               ;
 1192                          44.187      2.65524194 reservatorio               ;
 120                           26.288      0.13776882 reservatorio               ;
 1202                          23.474               0 reservatorio               ;
 1206                          28.875               0 reservatorio               ;
 1207                          28.507      0.19825269 reservatorio               ;
 1208                          28.875      0.72244624 reservatorio               ;
 121                           31.289      0.22715054 reservatorio               ;
 1212                            30.5       0.0577957 reservatorio               ;
 1213                            30.5               0 reservatorio               ;
 1214                            30.5      0.47244624 reservatorio               ;
 1219                          26.212      0.22311828 reservatorio               ;
 1222                          27.571      0.35215054 reservatorio               ;
 1224                           28.75       0.5719086 reservatorio               ;
 1225                          28.825      0.22311828 reservatorio               ;
 1229                          26.838      0.30040323 reservatorio               ;
 123                           28.305      0.69758065 reservatorio               ;
 1230                          26.921      0.49865591 reservatorio               ;
 1234                          26.032      0.05913978 reservatorio               ;
 1237                          24.669               0 reservatorio               ;
 124                           27.971      0.16599462 reservatorio               ;
 1241                          30.686      1.67876344 reservatorio               ;
 1244                          32.379      0.36155914 reservatorio               ;
 1246                          25.312      0.33736559 reservatorio               ;
 1247                           26.39      0.00403226 reservatorio               ;
 1254                          30.446       0.1391129 reservatorio               ;
 1255                          29.006      0.78091398 reservatorio               ;
 1257                          16.248      0.08266129 reservatorio               ;
 1259                          16.689      0.76747312 reservatorio               ;
 1262                          16.333      0.25672043 reservatorio               ;
 1264                          29.558      0.07123656 reservatorio               ;
 1268                          30.926      0.28360215 reservatorio               ;
 1269                          27.625      0.07526882 reservatorio               ;
 1271                          28.431      0.35887097 reservatorio               ;
 1276                          29.065      0.07325269 reservatorio               ;
 1277                          28.938      0.29435484 reservatorio               ;
 1281                          28.316      2.29166667 reservatorio               ;
 1283                          29.181      0.76008065 reservatorio               ;
 1284                          29.049      3.05174731 reservatorio               ;
 1288                          20.585               0 reservatorio               ;
 1289                          35.469       0.3891129 reservatorio               ;
 1293                          22.885      0.34543011 reservatorio               ;
 1296                          22.722      0.21975806 reservatorio               ;
 1299                          24.266      0.35147849 reservatorio               ;
 1302                          24.266      0.22580645 reservatorio               ;
 1305                          33.246      1.79704301 reservatorio               ;
 1308                          32.986      1.17204301 reservatorio               ;
 1310                          25.322      0.74798387 reservatorio               ;
 1313                          23.527      1.33803763 reservatorio               ;
 1316                          34.361      0.53897849 reservatorio               ;
 1319                          32.646               0 reservatorio               ;
 1324                          38.518      0.56451613 reservatorio               ;
 1327                          38.215      0.11021505 reservatorio               ;
 1329                          28.412      0.83534946 reservatorio               ;
 133                           32.082               0 reservatorio               ;
 1332                          23.233      0.83400538 reservatorio               ;
 1336                          25.315      1.21706989 reservatorio               ;
 1339                          22.861       1.1297043 reservatorio               ;
 1341                          18.867       0.3891129 reservatorio               ;
 1342                          19.065      0.37903226 reservatorio               ;
 1344                          20.737      0.51276882 reservatorio               ;
 1346                          18.866               0 reservatorio               ;
 1353                          21.366      0.67271505 reservatorio               ;
 1354                          20.832      0.67271505 reservatorio               ;
 1358                          15.708       0.5483871 reservatorio               ;
 1359                          20.175      0.50268817 reservatorio               ;
 136                           35.106               0 reservatorio               ;
 1363                          15.455      0.04905914 reservatorio               ;
 1364                          15.492      0.03965054 reservatorio               ;
 1366                          15.455      0.07123656 reservatorio               ;
 1369                          15.455      0.08870968 reservatorio               ;
 1375                          15.311      0.98655914 reservatorio               ;
 1378                          15.673      0.66465054 reservatorio               ;
 1381                          18.395               0 reservatorio               ;
 1382_n2a_1                    14.056               0 reservatorio               ;
 1382_n2a_2                    14.056      0.76545699 reservatorio               ;
 1384                          14.112               0 reservatorio               ;
 1389_n2a_1                    18.395      0.76478495 reservatorio               ;
 1389_n2a_2                    18.395               0 reservatorio               ;
 139                           42.174               0 reservatorio               ;
 1392_n2a_1                    18.395               0 reservatorio               ;
 1392_n2a_2                    18.395      1.02419355 reservatorio               ;
 1399                          16.524      1.06653226 reservatorio               ;
 14                            31.072       1.0577957 reservatorio               ;
 1402                          16.557               0 reservatorio               ;
 1404                          16.724      0.05040323 reservatorio               ;
 1407                          16.445      0.05040323 reservatorio               ;
 1409                          17.262      1.86962366 reservatorio               ;
 141                           32.763               0 reservatorio               ;
 1412                          17.671      0.03830645 reservatorio               ;
 1414                          15.929      1.23252688 reservatorio               ;
 1417                          15.991      0.10483871 reservatorio               ;
 1419                          14.526      0.58400538 reservatorio               ;
 1422                          14.148      0.33669355 reservatorio               ;
 1424                          13.803      2.05376344 reservatorio               ;
 1427                          13.926      0.04233871 reservatorio               ;
 1428                          14.205      0.02419355 reservatorio               ;
 143                           36.789      0.27486559 reservatorio               ;
 1430                          14.136      0.08870968 reservatorio               ;
 1434                          15.479      0.12836022 reservatorio               ;
 1435                          15.117      1.45026882 reservatorio               ;
 1439                          15.382      0.24126344 reservatorio               ;
 1442                          15.583      0.14314516 reservatorio               ;
 1444                           19.36      1.39180108 reservatorio               ;
 1447                          19.954      0.40524194 reservatorio               ;
 1449                           12.58               0 reservatorio               ;
 1450                          15.261               0 reservatorio               ;
 1454                          11.933               0 reservatorio               ;
 1458                          12.556      0.08870968 reservatorio               ;
 146                            39.59               0 reservatorio               ;
 1460                          12.287               0 reservatorio               ;
 1462                          14.117      0.53561828 reservatorio               ;
 1464                          13.827      0.15389785 reservatorio               ;
 1465                          13.733      0.77822581 reservatorio               ;
 1469                           8.232               0 reservatorio               ;
 1471                           8.709               0 reservatorio               ;
 1472                           9.212      0.16061828 reservatorio               ;
 1476                          13.206      0.01276882 reservatorio               ;
 1479                           7.327               0 reservatorio               ;
 1483                           7.799      0.01142473 reservatorio               ;
 1486                           8.784      0.00067204 reservatorio               ;
 1489                          10.864      0.01747312 reservatorio               ;
 149                           42.488      0.01747312 reservatorio               ;
 1492                          11.485      0.00672043 reservatorio               ;
 1494                          13.002      0.76276882 reservatorio               ;
 1495                          11.215      0.77553763 reservatorio               ;
 1499                           7.182               0 reservatorio               ;
 1502                          15.166               0 reservatorio               ;
 1506                          13.041      0.10416667 reservatorio               ;
 1510                          13.276               0 reservatorio               ;
 1511                          13.537               0 reservatorio               ;
 1513                          13.276      0.10416667 reservatorio               ;
 1517                          10.957               0 reservatorio               ;
 1518                          12.793               0 reservatorio               ;
 152                            43.21               0 reservatorio               ;
 1524                           9.342               0 reservatorio               ;
 1525                           8.959               0 reservatorio               ;
 1529                          12.859      0.94354839 reservatorio               ;
 1531                          11.696      0.14986559 reservatorio               ;
 1533                          14.246               0 reservatorio               ;
 1537                          11.625               0 reservatorio               ;
 1542                          11.888      0.94354839 reservatorio               ;
 1545                          11.399      1.27889785 reservatorio               ;
 1548_n2a_1                     12.16      0.13642473 reservatorio               ;
 1548_n2a_2                     12.16               0 reservatorio               ;
 1549_n2a_1                    12.017      1.14247312 reservatorio               ;
 1549_n2a_2                    12.017               0 reservatorio               ;
 155                           41.048      2.72043011 reservatorio               ;
 1554                           9.345               0 reservatorio               ;
 1557                          11.001               0 reservatorio               ;
 1558                            9.98      0.36223118 reservatorio               ;
 1562                          11.276               0 reservatorio               ;
 1565                          10.777               0 reservatorio               ;
 1567                           7.415      0.05040323 reservatorio               ;
 1568                           7.135               0 reservatorio               ;
 1572                           7.929      1.41330645 reservatorio               ;
 1576                          11.996               0 reservatorio               ;
 1578                           8.696               0 reservatorio               ;
 1579                           8.296               0 reservatorio               ;
 158                           37.812               0 reservatorio               ;
 1583                           8.083      0.67540323 reservatorio               ;
 1584                           9.064      0.67540323 reservatorio               ;
 1588                           9.261               0 reservatorio               ;
 159                            36.95      1.18413978 reservatorio               ;
 1590                           9.788      6.30510753 reservatorio               ;
 1592                          12.272               0 reservatorio               ;
 1596                            7.56      0.53091398 reservatorio               ;
 1597                           8.314      1.68682796 reservatorio               ;
 1598_n2a_1                    11.745      0.37836022 reservatorio               ;
 1598_n2a_2                    11.745               0 reservatorio               ;
 16                            27.702               0 reservatorio               ;
 160                            40.09      0.01747312 reservatorio               ;
 1602                           9.309      0.46706989 reservatorio               ;
 1603                            9.07      0.96236559 reservatorio               ;
 1608                           9.597               0 reservatorio               ;
 161                           39.306      0.68077957 reservatorio               ;
 1611                           9.324               0 reservatorio               ;
 1615                          11.159      0.81787634 reservatorio               ;
 1619                          11.544      0.09341398 reservatorio               ;
 162                           36.781          0.0625 reservatorio               ;
 1621                          11.027      0.27889785 reservatorio               ;
 1624                          11.603      0.32123656 reservatorio               ;
 1626                          12.044      0.06048387 reservatorio               ;
 1627                          11.741      0.38172043 reservatorio               ;
 1631                          12.575      0.13776882 reservatorio               ;
 1632                          11.795      0.24126344 reservatorio               ;
 1636                          11.289      0.02016129 reservatorio               ;
 1637                          11.954      0.01478495 reservatorio               ;
 1638                          11.646      0.84072581 reservatorio               ;
 164                           39.274      1.18413978 reservatorio               ;
 1642                          11.562               0 reservatorio               ;
 1646                          11.562      0.02889785 reservatorio               ;
 1649                          11.562      0.00873656 reservatorio               ;
 1650                           11.72      0.02956989 reservatorio               ;
 1653                           11.72      0.01478495 reservatorio               ;
 1656                          12.403      0.27217742 reservatorio               ;
 1659                          12.395      0.16733871 reservatorio               ;
 1661                          11.491      0.37836022 reservatorio               ;
 1663                          12.531      0.43884409 reservatorio               ;
 1664                          11.814               0 reservatorio               ;
 1668                          13.036       1.4469086 reservatorio               ;
 1671                          12.089      1.15793011 reservatorio               ;
 1674                          10.838      0.21102151 reservatorio               ;
 1675                          12.299      0.52083333 reservatorio               ;
 1679                          11.003      0.15456989 reservatorio               ;
 1680                          11.049               0 reservatorio               ;
 1681                          10.973      0.52083333 reservatorio               ;
 1685                          11.026      0.15456989 reservatorio               ;
 1689                           8.866      0.42271505 reservatorio               ;
 1693                           9.311      0.41397849 reservatorio               ;
 1697                          10.026               0 reservatorio               ;
 1698                           9.251      0.65053763 reservatorio               ;
 1702                           9.232      0.28024194 reservatorio               ;
 1706                            10.2          0.3125 reservatorio               ;
 1707                           9.621      0.20362903 reservatorio               ;
 1708                           9.684               0 reservatorio               ;
 1712                           9.684      0.51612903 reservatorio               ;
 1716                           9.984      0.12163978 reservatorio               ;
 1717                           9.956      0.55577957 reservatorio               ;
 1718                           8.619      1.01008065 reservatorio               ;
 172                           40.343      0.74327957 reservatorio               ;
 1722                          10.823      0.51948925 reservatorio               ;
 1726                           7.119               0 reservatorio               ;
 1729                           4.511               0 reservatorio               ;
 1731                           7.013               0 reservatorio               ;
 1734                           4.794               0 reservatorio               ;
 1736                           4.813               0 reservatorio               ;
 1740                           7.954               0 reservatorio               ;
 1741                           8.588               0 reservatorio               ;
 1746                            7.84      0.00067204 reservatorio               ;
 1750                           4.604               0 reservatorio               ;
 1754                           8.419      0.63844086 reservatorio               ;
 1755                           8.167               0 reservatorio               ;
 1759                           7.065               0 reservatorio               ;
 176                            27.09               0 reservatorio               ;
 1761                           9.041      0.11626344 reservatorio               ;
 1762                           9.614               0 reservatorio               ;
 1766                          10.721               0 reservatorio               ;
 1768                           8.644               0 reservatorio               ;
 1770                           8.405      0.43817204 reservatorio               ;
 1772                            7.65               0 reservatorio               ;
 1773                           6.389               0 reservatorio               ;
 1775                           7.525               0 reservatorio               ;
 1779                           9.934      0.67473118 reservatorio               ;
 1780                           7.543      0.43682796 reservatorio               ;
 1784                           7.533               0 reservatorio               ;
 1785                           7.344               0 reservatorio               ;
 1789                          10.526               0 reservatorio               ;
 179                           27.016               0 reservatorio               ;
 1790                          11.639      0.07123656 reservatorio               ;
 1796                           8.956      1.08602151 reservatorio               ;
 1800                          11.123               0 reservatorio               ;
 1801                          10.926      0.11424731 reservatorio               ;
 1805                           7.272      1.05376344 reservatorio               ;
 1808                           9.527      1.50739247 reservatorio               ;
 181                           30.261      0.22311828 reservatorio               ;
 1812                           8.302               0 reservatorio               ;
 1814                            8.05      0.72849462 reservatorio               ;
 1816                           7.904      0.72849462 reservatorio               ;
 1819                           7.904               0 reservatorio               ;
 1821                           7.606               0 reservatorio               ;
 1827                           8.509      0.27419355 reservatorio               ;
 1828                           8.456      0.27419355 reservatorio               ;
 1832                           9.843       0.1733871 reservatorio               ;
 1833                           8.456       0.1733871 reservatorio               ;
 1837                           11.88      0.40994624 reservatorio               ;
 1838                          11.936       0.0094086 reservatorio               ;
 184                           39.971      5.11626344 reservatorio               ;
 1842                           33.79      0.16465054 reservatorio               ;
 1843                          15.401      0.48924731 reservatorio               ;
 1847                          31.224      0.28091398 reservatorio               ;
 1848                           31.22      0.60215054 reservatorio               ;
 1853                          31.936      0.16465054 reservatorio               ;
 1856                          31.733      0.10551075 reservatorio               ;
 1857                          32.147      0.06989247 reservatorio               ;
 1859                          32.087      0.17540323 reservatorio               ;
 1863                          31.228      0.10282258 reservatorio               ;
 1864                          28.373      0.83400538 reservatorio               ;
 1869                          30.847      4.92674731 reservatorio               ;
 1871                          30.785       0.0436828 reservatorio               ;
 1874                          29.737       0.0436828 reservatorio               ;
 1875                          30.164      4.62903226 reservatorio               ;
 1878                          29.759               0 reservatorio               ;